/*--------------------------------*- C++ -*----------------------------------*\
| =========                 |                                                 |
| \      /  F ield         | OpenFOAM: The Open Source CFD Toolbox           |
|  \    /   O peration     | Version:  v2506                                 |
|   \  /    A nd           | Website:  www.openfoam.com                      |
|    \/     M anipulation  |                                                 |
\*---------------------------------------------------------------------------*/
FoamFile
{
    version     2.0;
    format      ascii;
    class       dictionary;
    location    "constant";
    object      transportProperties;
}
// Lopez silicone oil: rho = 930 kg/m3, mu = 0.01 Pa s.
// pimpleFoam uses nu = mu/rho.

transportModel  Newtonian;

rho             rho [1 -3 0 0 0 0 0] 930;
mu              mu  [1 -1 -1 0 0 0 0] 0.01;
nu              nu  [0 2 -1 0 0 0 0] 1.0752688172043011e-05;

// Diluted-species diffusivity D = 1e-8 m2/s (Lopez-Guajardo, corrected 2026-07;
// Sc = nu/D = 1075 (graded-mesh run: D raised so the film is thick + resolvable)). CHANGED from Yuhe's original 2.8e-8 so this case uses the
// SAME transport constants as the wall-model case (side_outlet_cat_wallmodel).
// Must match the scalarTransport D in system/controlDict.
D               D   [0 2 -1 0 0 0 0] 1e-8;

// ************************************************************************* //
